%nprocshared=16
%mem=16000MB
#p opt=()

Dummy atoms system

0 1 0 1 0 1
 H-H1-0.417000    -1   15.45700000   -9.58700000    3.86300000 L
 H-H2--0.417000   -1   16.35000000   -8.97500000    4.92100000 L
 H-H3-0.417000     0   14.73000000  -10.79000000   10.42200000 H
 H                 0   14.73000000  -10.79000000   10.42200000 H
 O-O_3             0   10.77794933  -10.19599986    9.09477615 H

 1 325 1.0
 2 325 1.0
 3 326

H 0
S 3 1.00
34.0613410 0.60251978E-02
****
C 0
S 6 1.00
13575.3496820 0.22245814352E-03
F 1 1.00
1.42800000 1.0000000
****
